<?xml version="1.0" encoding="UTF-8"?>

<!-- generated on 2024-07-17 16:09:13.094962 by osmWebWizard.py v1_20_0+0002-343658e7c64
<configuration>
    <net-file value="C:\Coding\signal syncronization\2024-07-17-16-09-07\osm.net.xml.gz"/>
    <output-trip-file value="C:\Coding\signal syncronization\2024-07-17-16-09-07\osm.passenger.trips.xml"/>
    <route-file value="C:\Coding\signal syncronization\2024-07-17-16-09-07\osm.passenger.rou.xml"/>
    <prefix value="veh"/>
    <trip-attributes value="departLane=&quot;best&quot;"/>
    <fringe-start-attributes value="departSpeed=&quot;max&quot;"/>
    <vehicle-class value="passenger"/>
    <lanes value="True"/>
    <fringe-factor value="5"/>
    <allow-fringe.min-length value="1000.0"/>
    <via-edge-types value="highway.motorway,highway.motorway_link,highway.trunk_link,highway.primary_link,highway.secondary_link,highway.tertiary_link"/>
    <min-distance value="300.0"/>
    <min-distance.fringe value="10.0"/>
    <remove-loops value="True"/>
    <validate value="True"/>
    <insertion-density value="12.0"/>
</configuration>
-->

<!-- generated on 2024-07-17 16:09:12 by Eclipse SUMO duarouter Version 1.20.0
<configuration xmlns:xsi="http://www.w3.org/2001/XMLSchema-instance" xsi:noNamespaceSchemaLocation="http://sumo.dlr.de/xsd/duarouterConfiguration.xsd">

    <input>
        <net-file value="C:\Coding\signal syncronization\2024-07-17-16-09-07\osm.net.xml.gz"/>
        <route-files value="C:\Coding\signal syncronization\2024-07-17-16-09-07\osm.passenger.trips.xml"/>
    </input>

    <output>
        <output-file value="C:\Coding\signal syncronization\2024-07-17-16-09-07\osm.passenger.trips.xml.tmp"/>
        <alternatives-output value="NUL"/>
        <write-trips value="true"/>
    </output>

    <processing>
        <remove-loops value="true"/>
    </processing>

    <time>
        <begin value="0.0"/>
        <end value="3600.0"/>
    </time>

    <report>
        <no-warnings value="true"/>
        <ignore-errors value="true"/>
        <no-step-log value="true"/>
    </report>

</configuration>
-->

<routes xmlns:xsi="http://www.w3.org/2001/XMLSchema-instance" xsi:noNamespaceSchemaLocation="http://sumo.dlr.de/xsd/routes_file.xsd">
    <vType id="veh_passenger" vClass="passenger"/>
    <trip id="veh0" type="veh_passenger" depart="0.00" departLane="best" from="684134317#1" to="-1127586232"/>
    <trip id="veh1" type="veh_passenger" depart="7.23" departLane="best" from="-787846496" to="-630925190#6"/>
    <trip id="veh2" type="veh_passenger" depart="14.47" departLane="best" from="787846474#0" to="684134317#5"/>
    <trip id="veh3" type="veh_passenger" depart="21.70" departLane="best" from="789273516#4" to="171773341#1"/>
    <trip id="veh4" type="veh_passenger" depart="28.94" departLane="best" from="-1190515846" to="-1177472286#0"/>
    <trip id="veh5" type="veh_passenger" depart="36.17" departLane="best" from="-630925190#3" to="-215216018#1"/>
    <trip id="veh6" type="veh_passenger" depart="43.41" departLane="best" from="684134318#2" to="-215253099"/>
    <trip id="veh7" type="veh_passenger" depart="50.64" departLane="best" from="-630925190#4" to="552031327#6"/>
    <trip id="veh8" type="veh_passenger" depart="57.88" departLane="best" from="787877871" to="684134318#9"/>
    <trip id="veh9" type="veh_passenger" depart="65.11" departLane="best" from="-970151430" to="215280913#2"/>
    <trip id="veh10" type="veh_passenger" depart="72.35" departLane="best" from="789299381#1" to="970151430"/>
    <trip id="veh11" type="veh_passenger" depart="79.58" departLane="best" from="789269678#4" to="630925190#0"/>
    <trip id="veh12" type="veh_passenger" depart="86.82" departLane="best" from="787877872#0" to="-786433816#1"/>
    <trip id="veh13" type="veh_passenger" depart="94.05" departLane="best" from="-215252957#4" to="790694407#6"/>
    <trip id="veh14" type="veh_passenger" depart="101.29" departLane="best" from="1126956893" to="215280913#2"/>
    <trip id="veh15" type="veh_passenger" depart="108.52" departLane="best" from="789269679#6" to="630925190#5"/>
    <trip id="veh16" type="veh_passenger" depart="115.76" departLane="best" from="789269679#4" to="-552031327#0"/>
    <trip id="veh17" type="veh_passenger" depart="122.99" departLane="best" from="684134318#9" to="-1180399189#0"/>
    <trip id="veh18" type="veh_passenger" depart="130.23" departLane="best" from="-630925190#8" to="-787864305"/>
    <trip id="veh19" type="veh_passenger" depart="137.46" departLane="best" from="-171773332#7" to="-786433816#0"/>
    <trip id="veh20" type="veh_passenger" depart="144.70" departLane="best" from="-212269330#1" to="-787854418#0"/>
    <trip id="veh21" type="veh_passenger" depart="151.93" departLane="best" from="684134317#0" to="1081661828#2"/>
    <trip id="veh22" type="veh_passenger" depart="159.17" departLane="best" from="1082244429" to="-630925190#13"/>
    <trip id="veh23" type="veh_passenger" depart="166.40" departLane="best" from="-787846487" to="789281125#0"/>
    <trip id="veh24" type="veh_passenger" depart="173.64" departLane="best" from="684134317#5" to="630925190#14"/>
    <trip id="veh25" type="veh_passenger" depart="180.87" departLane="best" from="236068437#1" to="-786433816#1"/>
    <trip id="veh26" type="veh_passenger" depart="188.11" departLane="best" from="-215280925#1" to="-1175275712#0"/>
    <trip id="veh27" type="veh_passenger" depart="195.34" departLane="best" from="989802152#4" to="684134318#3"/>
    <trip id="veh28" type="veh_passenger" depart="202.58" departLane="best" from="-215280913#2" to="684134318#4"/>
    <trip id="veh29" type="veh_passenger" depart="209.81" departLane="best" from="789269678#3" to="-787854418#1"/>
    <trip id="veh30" type="veh_passenger" depart="217.05" departLane="best" from="-630925190#9" to="-1177472286#1"/>
    <trip id="veh31" type="veh_passenger" depart="224.28" departLane="best" from="-630925190#13" to="789292164#0"/>
    <trip id="veh32" type="veh_passenger" depart="231.52" departLane="best" from="789273514#1" to="-787877872#0"/>
    <trip id="veh33" type="veh_passenger" depart="238.75" departLane="best" from="684134318#1" to="789281125#1"/>
    <trip id="veh34" type="veh_passenger" depart="245.99" departLane="best" from="789273518#1" to="171773332#9"/>
    <trip id="veh35" type="veh_passenger" depart="253.22" departLane="best" from="-787846483" to="-787846476#0"/>
    <trip id="veh36" type="veh_passenger" depart="260.46" departLane="best" from="552031327#0" to="789273516#5"/>
    <trip id="veh37" type="veh_passenger" depart="267.69" departLane="best" from="1180363660" to="-630925190#4"/>
    <trip id="veh38" type="veh_passenger" depart="274.93" departLane="best" from="-991954526" to="215216018#3"/>
    <trip id="veh39" type="veh_passenger" depart="282.16" departLane="best" from="-171773341#2" to="-1180399189#0"/>
    <trip id="veh40" type="veh_passenger" depart="289.40" departLane="best" from="215216018#1" to="654639930#1"/>
    <trip id="veh41" type="veh_passenger" depart="296.63" departLane="best" from="787864310" to="789281125#1"/>
    <trip id="veh42" type="veh_passenger" depart="303.87" departLane="best" from="-171772339" to="-1177472286#0"/>
    <trip id="veh43" type="veh_passenger" depart="311.10" departLane="best" from="-991954526" to="-215252957#4"/>
    <trip id="veh44" type="veh_passenger" depart="318.33" departLane="best" from="790694407#5" to="171772348#3"/>
    <trip id="veh46" type="veh_passenger" depart="332.80" departLane="best" from="684134318#1" to="-215253019#0"/>
    <trip id="veh47" type="veh_passenger" depart="340.04" departLane="best" from="-215216018#2" to="171772348#0"/>
    <trip id="veh48" type="veh_passenger" depart="347.27" departLane="best" from="171773332#3" to="789292165#4"/>
    <trip id="veh49" type="veh_passenger" depart="354.51" departLane="best" from="789273514#0" to="-215216018#0"/>
    <trip id="veh50" type="veh_passenger" depart="361.74" departLane="best" from="212269330#1" to="552031327#1"/>
    <trip id="veh51" type="veh_passenger" depart="368.98" departLane="best" from="789273518#0" to="789269679#7"/>
    <trip id="veh52" type="veh_passenger" depart="376.21" departLane="best" from="-787864308" to="684134317#4"/>
    <trip id="veh53" type="veh_passenger" depart="383.45" departLane="best" from="630925190#0" to="-215280913#1"/>
    <trip id="veh54" type="veh_passenger" depart="390.68" departLane="best" from="-787846490#1" to="-215253019#1"/>
    <trip id="veh55" type="veh_passenger" depart="397.92" departLane="best" from="-787864302#3" to="215252957#4"/>
    <trip id="veh56" type="veh_passenger" depart="405.15" departLane="best" from="-1069810945" to="-787877878"/>
    <trip id="veh57" type="veh_passenger" depart="412.39" departLane="best" from="-1100595405" to="789273518#4"/>
    <trip id="veh58" type="veh_passenger" depart="419.62" departLane="best" from="789273515#0" to="787905863#5"/>
    <trip id="veh59" type="veh_passenger" depart="426.86" departLane="best" from="787864314#0" to="1190515846"/>
    <trip id="veh60" type="veh_passenger" depart="434.09" departLane="best" from="171773334#1" to="789292164#3"/>
    <trip id="veh61" type="veh_passenger" depart="441.33" departLane="best" from="-171773332#1" to="787846487"/>
    <trip id="veh63" type="veh_passenger" depart="455.80" departLane="best" from="171773334#4" to="215280913#1"/>
    <trip id="veh64" type="veh_passenger" depart="463.03" departLane="best" from="-787846483" to="789269679#8"/>
    <trip id="veh65" type="veh_passenger" depart="470.27" departLane="best" from="-1190515846" to="630925190#14"/>
    <trip id="veh66" type="veh_passenger" depart="477.50" departLane="best" from="-564000750" to="-787877870"/>
    <trip id="veh67" type="veh_passenger" depart="484.74" departLane="best" from="-215216018#7" to="-630925190#8"/>
    <trip id="veh68" type="veh_passenger" depart="491.97" departLane="best" from="-789299381#1" to="552031327#5"/>
    <trip id="veh69" type="veh_passenger" depart="499.21" departLane="best" from="-630925190#9" to="-630925190#5"/>
    <trip id="veh70" type="veh_passenger" depart="506.44" departLane="best" from="-171773332#2" to="684134317#0"/>
    <trip id="veh71" type="veh_passenger" depart="513.68" departLane="best" from="630925190#9" to="789273516#7"/>
    <trip id="veh72" type="veh_passenger" depart="520.91" departLane="best" from="789269679#3" to="-171773332#2"/>
    <trip id="veh73" type="veh_passenger" depart="528.15" departLane="best" from="786433816#1" to="684134317#7"/>
    <trip id="veh74" type="veh_passenger" depart="535.38" departLane="best" from="-630925190#14" to="-215252957#3"/>
    <trip id="veh75" type="veh_passenger" depart="542.62" departLane="best" from="171773334#3" to="-787864305"/>
    <trip id="veh76" type="veh_passenger" depart="549.85" departLane="best" from="787877872#0" to="552031327#6"/>
    <trip id="veh77" type="veh_passenger" depart="557.09" departLane="best" from="-171773341#5" to="171772341#1"/>
    <trip id="veh78" type="veh_passenger" depart="564.32" departLane="best" from="786433816#2" to="684134317#6"/>
    <trip id="veh79" type="veh_passenger" depart="571.56" departLane="best" from="989802152#0" to="212269330#0"/>
    <trip id="veh80" type="veh_passenger" depart="578.79" departLane="best" from="1180397545" to="970151431"/>
    <trip id="veh81" type="veh_passenger" depart="586.03" departLane="best" from="-552031327#5" to="-171773332#3"/>
    <trip id="veh82" type="veh_passenger" depart="593.26" departLane="best" from="-1190515846" to="-787854418#0"/>
    <trip id="veh83" type="veh_passenger" depart="600.50" departLane="best" from="-787846476#0" to="789273518#3"/>
    <trip id="veh84" type="veh_passenger" depart="607.73" departLane="best" from="215253099" to="1190152217"/>
    <trip id="veh85" type="veh_passenger" depart="614.96" departLane="best" from="991954527" to="789269678#0"/>
    <trip id="veh86" type="veh_passenger" depart="622.20" departLane="best" from="790694407#3" to="789273518#3"/>
    <trip id="veh87" type="veh_passenger" depart="629.43" departLane="best" from="789269678#5" to="-236068437#0"/>
    <trip id="veh88" type="veh_passenger" depart="636.67" departLane="best" from="-171773341#0" to="630925190#2"/>
    <trip id="veh89" type="veh_passenger" depart="643.90" departLane="best" from="236068439#2" to="1267452678"/>
    <trip id="veh90" type="veh_passenger" depart="651.14" departLane="best" from="1126956893" to="989802152#2"/>
    <trip id="veh91" type="veh_passenger" depart="658.37" departLane="best" from="-787846483" to="-787864305"/>
    <trip id="veh92" type="veh_passenger" depart="665.61" departLane="best" from="171773332#4" to="789281125#1"/>
    <trip id="veh93" type="veh_passenger" depart="672.84" departLane="best" from="-789299381#1" to="990260944#1"/>
    <trip id="veh95" type="veh_passenger" depart="687.31" departLane="best" from="-215280913#1" to="787864308"/>
    <trip id="veh96" type="veh_passenger" depart="694.55" departLane="best" from="790694407#3" to="552031327#1"/>
    <trip id="veh97" type="veh_passenger" depart="701.78" departLane="best" from="215253019#0" to="-787846476#2"/>
    <trip id="veh98" type="veh_passenger" depart="709.02" departLane="best" from="-1190515846" to="552031327#3"/>
    <trip id="veh99" type="veh_passenger" depart="716.25" departLane="best" from="212269356#0" to="789269678#6"/>
    <trip id="veh100" type="veh_passenger" depart="723.49" departLane="best" from="-215280913#2" to="171773335#3"/>
    <trip id="veh101" type="veh_passenger" depart="730.72" departLane="best" from="171773332#7" to="552031327#4"/>
    <trip id="veh102" type="veh_passenger" depart="737.96" departLane="best" from="552031327#5" to="684134317#6"/>
    <trip id="veh103" type="veh_passenger" depart="745.19" departLane="best" from="789273516#3" to="-787846476#0"/>
    <trip id="veh104" type="veh_passenger" depart="752.43" departLane="best" from="552031327#5" to="630925190#6"/>
    <trip id="veh105" type="veh_passenger" depart="759.66" departLane="best" from="-1190515845#0" to="552031327#3"/>
    <trip id="veh107" type="veh_passenger" depart="774.13" departLane="best" departSpeed="max" from="684134318#0" to="-787864310"/>
    <trip id="veh108" type="veh_passenger" depart="781.37" departLane="best" from="787877871" to="-787846476#4"/>
    <trip id="veh109" type="veh_passenger" depart="788.60" departLane="best" from="171773332#3" to="171773332#9"/>
    <trip id="veh110" type="veh_passenger" depart="795.84" departLane="best" from="991954527" to="991954526"/>
    <trip id="veh111" type="veh_passenger" depart="803.07" departLane="best" from="-171773332#3" to="630925190#2"/>
    <trip id="veh112" type="veh_passenger" depart="810.31" departLane="best" from="-787846483" to="789273518#6"/>
    <trip id="veh113" type="veh_passenger" depart="817.54" departLane="best" from="-1081661828#2" to="215280913#3"/>
    <trip id="veh115" type="veh_passenger" depart="832.01" departLane="best" from="630925190#10" to="989802152#3"/>
    <trip id="veh116" type="veh_passenger" depart="839.25" departLane="best" from="787877878" to="-787864310"/>
    <trip id="veh117" type="veh_passenger" depart="846.48" departLane="best" departSpeed="max" from="684134318#0" to="789281125#1"/>
    <trip id="veh118" type="veh_passenger" depart="853.72" departLane="best" from="215252957#3" to="-215216018#5"/>
    <trip id="veh119" type="veh_passenger" depart="860.95" departLane="best" from="-787846491" to="630925190#10"/>
    <trip id="veh121" type="veh_passenger" depart="875.42" departLane="best" from="654639930#1" to="-215216018#0"/>
    <trip id="veh122" type="veh_passenger" depart="882.66" departLane="best" from="-171773341#1" to="789273516#6"/>
    <trip id="veh123" type="veh_passenger" depart="889.89" departLane="best" from="789269678#4" to="-171773341#3"/>
    <trip id="veh124" type="veh_passenger" depart="897.13" departLane="best" from="-1190515846" to="-787854417"/>
    <trip id="veh125" type="veh_passenger" depart="904.36" departLane="best" from="-1077645653#0" to="-787854417"/>
    <trip id="veh126" type="veh_passenger" depart="911.60" departLane="best" from="684134317#0" to="787846483"/>
    <trip id="veh127" type="veh_passenger" depart="918.83" departLane="best" from="787846476#0" to="215280913#2"/>
    <trip id="veh128" type="veh_passenger" depart="926.06" departLane="best" from="1264721993#0" to="1081661828#0"/>
    <trip id="veh129" type="veh_passenger" depart="933.30" departLane="best" from="171773332#4" to="789273515#1"/>
    <trip id="veh130" type="veh_passenger" depart="940.53" departLane="best" from="789269678#0" to="552031327#2"/>
    <trip id="veh131" type="veh_passenger" depart="947.77" departLane="best" from="787864314#0" to="789273518#2"/>
    <trip id="veh132" type="veh_passenger" depart="955.00" departLane="best" from="787864314#0" to="171772348#3"/>
    <trip id="veh133" type="veh_passenger" depart="962.24" departLane="best" from="789273516#5" to="-630925190#13"/>
    <trip id="veh134" type="veh_passenger" depart="969.47" departLane="best" from="-787846476#0" to="-212269356#0"/>
    <trip id="veh136" type="veh_passenger" depart="983.94" departLane="best" from="1180397546" to="630925190#6"/>
    <trip id="veh137" type="veh_passenger" depart="991.18" departLane="best" from="-215280913#1" to="789273518#4"/>
    <trip id="veh138" type="veh_passenger" depart="998.41" departLane="best" from="787877872#1" to="789273515#0"/>
    <trip id="veh139" type="veh_passenger" depart="1005.65" departLane="best" from="1127586232" to="-787846473#0"/>
    <trip id="veh140" type="veh_passenger" depart="1012.88" departLane="best" from="-787877880" to="789273516#3"/>
    <trip id="veh141" type="veh_passenger" depart="1020.12" departLane="best" from="787877870" to="171772348#2"/>
    <trip id="veh142" type="veh_passenger" depart="1027.35" departLane="best" from="-787864308" to="215216018#1"/>
    <trip id="veh143" type="veh_passenger" depart="1034.59" departLane="best" from="-630925190#5" to="-787877876#0"/>
    <trip id="veh144" type="veh_passenger" depart="1041.82" departLane="best" from="171773332#7" to="-787864314#0"/>
    <trip id="veh145" type="veh_passenger" depart="1049.06" departLane="best" from="787864310" to="-630925190#9"/>
    <trip id="veh146" type="veh_passenger" depart="1056.29" departLane="best" from="-1123319639" to="552032672"/>
    <trip id="veh147" type="veh_passenger" depart="1063.53" departLane="best" from="790694407#1" to="-787854418#0"/>
    <trip id="veh148" type="veh_passenger" depart="1070.76" departLane="best" from="684134317#1" to="1180397545"/>
    <trip id="veh149" type="veh_passenger" depart="1078.00" departLane="best" from="988476926" to="-215253019#0"/>
    <trip id="veh150" type="veh_passenger" depart="1085.23" departLane="best" from="789292162" to="-215216018#5"/>
    <trip id="veh151" type="veh_passenger" depart="1092.47" departLane="best" from="790694407#5" to="552031327#1"/>
    <trip id="veh152" type="veh_passenger" depart="1099.70" departLane="best" from="789299382#2" to="-787846489"/>
    <trip id="veh153" type="veh_passenger" depart="1106.94" departLane="best" from="-215216018#0" to="171772348#0"/>
    <trip id="veh154" type="veh_passenger" depart="1114.17" departLane="best" from="786433816#2" to="-787877871"/>
    <trip id="veh155" type="veh_passenger" depart="1121.41" departLane="best" from="564000750" to="215216018#5"/>
    <trip id="veh156" type="veh_passenger" depart="1128.64" departLane="best" from="1177472286#0" to="-552031327#0"/>
    <trip id="veh158" type="veh_passenger" depart="1143.11" departLane="best" from="-1069810945" to="789273518#3"/>
    <trip id="veh160" type="veh_passenger" depart="1157.58" departLane="best" from="787846476#1" to="684134317#7"/>
    <trip id="veh161" type="veh_passenger" depart="1164.82" departLane="best" from="-1081661828#0" to="-171773332#2"/>
    <trip id="veh162" type="veh_passenger" depart="1172.05" departLane="best" departSpeed="max" from="684134318#0" to="-789208797"/>
    <trip id="veh163" type="veh_passenger" depart="1179.29" departLane="best" from="787877870" to="789269678#4"/>
    <trip id="veh165" type="veh_passenger" depart="1193.76" departLane="best" from="787864314#1" to="-1180399189#0"/>
    <trip id="veh166" type="veh_passenger" depart="1200.99" departLane="best" from="1180397545" to="787864308"/>
    <trip id="veh167" type="veh_passenger" depart="1208.23" departLane="best" from="-215252947" to="1191210738"/>
    <trip id="veh168" type="veh_passenger" depart="1215.46" departLane="best" from="789292162" to="684134317#5"/>
    <trip id="veh169" type="veh_passenger" depart="1222.69" departLane="best" from="789273516#6" to="630925190#4"/>
    <trip id="veh170" type="veh_passenger" depart="1229.93" departLane="best" from="-787864309#1" to="215253123"/>
    <trip id="veh171" type="veh_passenger" depart="1237.16" departLane="best" from="-1069810945" to="787864302#2"/>
    <trip id="veh172" type="veh_passenger" depart="1244.40" departLane="best" from="-1267452678" to="552031327#1"/>
    <trip id="veh173" type="veh_passenger" depart="1251.63" departLane="best" from="684134318#1" to="171773334#2"/>
    <trip id="veh174" type="veh_passenger" depart="1258.87" departLane="best" from="789269679#4" to="630925190#2"/>
    <trip id="veh175" type="veh_passenger" depart="1266.10" departLane="best" from="171773334#3" to="789273518#1"/>
    <trip id="veh176" type="veh_passenger" depart="1273.34" departLane="best" from="-171773341#0" to="215216018#7"/>
    <trip id="veh177" type="veh_passenger" depart="1280.57" departLane="best" from="-654639930#1" to="-789299381#1"/>
    <trip id="veh178" type="veh_passenger" depart="1287.81" departLane="best" departSpeed="max" from="684134318#0" to="-630925190#8"/>
    <trip id="veh179" type="veh_passenger" depart="1295.04" departLane="best" from="630925190#5" to="1127586232"/>
    <trip id="veh180" type="veh_passenger" depart="1302.28" departLane="best" from="787846474#0" to="171773335#1"/>
    <trip id="veh181" type="veh_passenger" depart="1309.51" departLane="best" from="789269678#5" to="171773332#3"/>
    <trip id="veh182" type="veh_passenger" depart="1316.75" departLane="best" from="-1180399189#1" to="684134317#0"/>
    <trip id="veh183" type="veh_passenger" depart="1323.98" departLane="best" from="-552032672" to="684134318#7"/>
    <trip id="veh184" type="veh_passenger" depart="1331.22" departLane="best" from="-171773341#4" to="787846474#1"/>
    <trip id="veh185" type="veh_passenger" depart="1338.45" departLane="best" from="787846479#0" to="-787854417"/>
    <trip id="veh186" type="veh_passenger" depart="1345.69" departLane="best" from="-215216018#0" to="1267452678"/>
    <trip id="veh187" type="veh_passenger" depart="1352.92" departLane="best" from="236068437#3" to="789299381#1"/>
    <trip id="veh188" type="veh_passenger" depart="1360.16" departLane="best" from="215216018#6" to="1190152217"/>
    <trip id="veh189" type="veh_passenger" depart="1367.39" departLane="best" from="-787846476#0" to="789269678#4"/>
    <trip id="veh190" type="veh_passenger" depart="1374.63" departLane="best" from="171773332#4" to="-787864314#1"/>
    <trip id="veh191" type="veh_passenger" depart="1381.86" departLane="best" departSpeed="max" from="684134318#0" to="989802152#3"/>
    <trip id="veh192" type="veh_passenger" depart="1389.10" departLane="best" from="-552031327#5" to="789292165#0"/>
    <trip id="veh193" type="veh_passenger" depart="1396.33" departLane="best" from="789273516#4" to="630925190#2"/>
    <trip id="veh195" type="veh_passenger" depart="1410.80" departLane="best" from="789208797" to="215253123"/>
    <trip id="veh196" type="veh_passenger" depart="1418.04" departLane="best" from="789273518#3" to="787846476#0"/>
    <trip id="veh197" type="veh_passenger" depart="1425.27" departLane="best" from="171773334#4" to="-787846482"/>
    <trip id="veh198" type="veh_passenger" depart="1432.51" departLane="best" from="-787846474#1" to="684134317#4"/>
    <trip id="veh201" type="veh_passenger" depart="1454.21" departLane="best" from="171773332#6" to="787864302#1"/>
    <trip id="veh202" type="veh_passenger" depart="1461.45" departLane="best" from="-787846490#1" to="-787877874"/>
    <trip id="veh203" type="veh_passenger" depart="1468.68" departLane="best" from="-654639930#1" to="684134318#7"/>
    <trip id="veh204" type="veh_passenger" depart="1475.92" departLane="best" from="684134318#9" to="-171772339"/>
    <trip id="veh205" type="veh_passenger" depart="1483.15" departLane="best" from="1180397545" to="-215253054#1"/>
    <trip id="veh207" type="veh_passenger" depart="1497.62" departLane="best" from="-1190515845#1" to="789273518#1"/>
    <trip id="veh208" type="veh_passenger" depart="1504.86" departLane="best" from="552031327#0" to="684134318#7"/>
    <trip id="veh209" type="veh_passenger" depart="1512.09" departLane="best" from="789269679#12" to="787846496"/>
    <trip id="veh210" type="veh_passenger" depart="1519.33" departLane="best" from="1126956893" to="1077645653#1"/>
    <trip id="veh211" type="veh_passenger" depart="1526.56" departLane="best" from="-990260944#1" to="-787846479#0"/>
    <trip id="veh212" type="veh_passenger" depart="1533.79" departLane="best" from="171772348#4" to="789292165#4"/>
    <trip id="veh213" type="veh_passenger" depart="1541.03" departLane="best" from="-1190515845#0" to="-787846476#2"/>
    <trip id="veh214" type="veh_passenger" depart="1548.26" departLane="best" from="215253054#0" to="630925190#0"/>
    <trip id="veh215" type="veh_passenger" depart="1555.50" departLane="best" from="-171772341#1" to="-1177472286#0"/>
    <trip id="veh216" type="veh_passenger" depart="1562.73" departLane="best" from="-789292162" to="684134317#5"/>
    <trip id="veh217" type="veh_passenger" depart="1569.97" departLane="best" from="1180397545" to="-215280936#0"/>
    <trip id="veh218" type="veh_passenger" depart="1577.20" departLane="best" from="171773334#0" to="-215252957#1"/>
    <trip id="veh219" type="veh_passenger" depart="1584.44" departLane="best" from="-630925190#4" to="-1175275712#0"/>
    <trip id="veh220" type="veh_passenger" depart="1591.67" departLane="best" from="1177473046" to="-236068437#2"/>
    <trip id="veh221" type="veh_passenger" depart="1598.91" departLane="best" from="1175275712#0" to="684134317#5"/>
    <trip id="veh223" type="veh_passenger" depart="1613.38" departLane="best" from="-630925190#13" to="-787877879#0"/>
    <trip id="veh224" type="veh_passenger" depart="1620.61" departLane="best" from="-787846490#1" to="-1175275712#0"/>
    <trip id="veh225" type="veh_passenger" depart="1627.85" departLane="best" from="787846479#0" to="787905863#5"/>
    <trip id="veh226" type="veh_passenger" depart="1635.08" departLane="best" from="-1100595405" to="-215253019#1"/>
    <trip id="veh227" type="veh_passenger" depart="1642.32" departLane="best" from="991954527" to="991954526"/>
    <trip id="veh228" type="veh_passenger" depart="1649.55" departLane="best" from="684134318#2" to="787864302#2"/>
    <trip id="veh229" type="veh_passenger" depart="1656.79" departLane="best" from="684134318#2" to="-787846479#0"/>
    <trip id="veh230" type="veh_passenger" depart="1664.02" departLane="best" from="789292164#3" to="564000750"/>
    <trip id="veh231" type="veh_passenger" depart="1671.26" departLane="best" from="-1123238275" to="-215253123"/>
    <trip id="veh232" type="veh_passenger" depart="1678.49" departLane="best" from="215252947" to="684134317#7"/>
    <trip id="veh233" type="veh_passenger" depart="1685.73" departLane="best" from="684134318#5" to="787846496"/>
    <trip id="veh234" type="veh_passenger" depart="1692.96" departLane="best" from="236068437#0" to="630925190#13"/>
    <trip id="veh235" type="veh_passenger" depart="1700.20" departLane="best" from="787846476#4" to="-215216018#5"/>
    <trip id="veh236" type="veh_passenger" depart="1707.43" departLane="best" from="787905862" to="171773335#0"/>
    <trip id="veh237" type="veh_passenger" depart="1714.67" departLane="best" from="-215216018#0" to="-1127586232"/>
    <trip id="veh238" type="veh_passenger" depart="1721.90" departLane="best" from="789299381#1" to="1180373335"/>
    <trip id="veh240" type="veh_passenger" depart="1736.37" departLane="best" from="684134317#4" to="654639930#1"/>
    <trip id="veh241" type="veh_passenger" depart="1743.61" departLane="best" from="-212269330#1" to="-787854418#0"/>
    <trip id="veh242" type="veh_passenger" depart="1750.84" departLane="best" from="789269678#6" to="630918359#0"/>
    <trip id="veh243" type="veh_passenger" depart="1758.08" departLane="best" from="215216018#7" to="790694407#5"/>
    <trip id="veh244" type="veh_passenger" depart="1765.31" departLane="best" from="787864306" to="990260944#1"/>
    <trip id="veh245" type="veh_passenger" depart="1772.55" departLane="best" from="-1267452678" to="1123238275"/>
    <trip id="veh246" type="veh_passenger" depart="1779.78" departLane="best" from="212269356#1" to="988213380"/>
    <trip id="veh247" type="veh_passenger" depart="1787.02" departLane="best" from="789269678#5" to="787905863#0"/>
    <trip id="veh248" type="veh_passenger" depart="1794.25" departLane="best" from="212269356#1" to="171773335#3"/>
    <trip id="veh249" type="veh_passenger" depart="1801.49" departLane="best" from="684134317#0" to="787905863#4"/>
    <trip id="veh250" type="veh_passenger" depart="1808.72" departLane="best" from="684134318#9" to="171772348#0"/>
    <trip id="veh251" type="veh_passenger" depart="1815.96" departLane="best" from="787846473#0" to="171773335#0"/>
    <trip id="veh252" type="veh_passenger" depart="1823.19" departLane="best" from="-215252957#6" to="171773341#1"/>
    <trip id="veh253" type="veh_passenger" depart="1830.42" departLane="best" from="-171772341#1" to="-786433816#1"/>
    <trip id="veh254" type="veh_passenger" depart="1837.66" departLane="best" from="787846489" to="789269678#6"/>
    <trip id="veh255" type="veh_passenger" depart="1844.89" departLane="best" from="789208797" to="171773341#1"/>